!-Generator IDFEditor 1.51
!-Option SortedOrder
!-NOTE: All comments with '!-' are ignored by the IDFEditor and are generated automatically.
!-      Use '!' comments if they need to be retained when using the IDFEditor.
!-   ===========  ALL OBJECTS IN CLASS: VERSION ===========

  Version,24.1;

!-   ===========  ALL OBJECTS IN CLASS: SIMULATIONCONTROL ===========

  SimulationControl,
    Yes,                     !- Do Zone Sizing Calculation
    Yes,                     !- Do System Sizing Calculation
    No,                      !- Do Plant Sizing Calculation
    Yes,                     !- Run Simulation for Sizing Periods
    Yes,                     !- Run Simulation for Weather File Run Periods
    No,                      !- Do HVAC Sizing Simulation for Sizing Periods
    1;                       !- Maximum Number of HVAC Sizing Simulation Passes

!-   ===========  ALL OBJECTS IN CLASS: BUILDING ===========

  Building,
    Solar Illuminated Farm,  !- Name
    0,                       !- North Axis {deg}
    City,                    !- Terrain
    0.4,                     !- Loads Convergence Tolerance Value {W}
    0.4,                     !- Temperature Convergence Tolerance Value {deltaC}
    FullExterior,            !- Solar Distribution
    25,                      !- Maximum Number of Warmup Days
    1;                       !- Minimum Number of Warmup Days

!-   ===========  ALL OBJECTS IN CLASS: SURFACECONVECTIONALGORITHM:INSIDE ===========

  SurfaceConvectionAlgorithm:Inside,TARP;

!-   ===========  ALL OBJECTS IN CLASS: SURFACECONVECTIONALGORITHM:OUTSIDE ===========

  SurfaceConvectionAlgorithm:Outside,DOE-2;

!-   ===========  ALL OBJECTS IN CLASS: HEATBALANCEALGORITHM ===========

  HeatBalanceAlgorithm,ConductionTransferFunction,200,0.1,1000;

!-   ===========  ALL OBJECTS IN CLASS: TIMESTEP ===========

  Timestep,6;

!-   ===========  ALL OBJECTS IN CLASS: SIZINGPERIOD:WEATHERFILEDAYS ===========

  SizingPeriod:WeatherFileDays,
    Istanbul,                !- Name
    1,                       !- Begin Month
    1,                       !- Begin Day of Month
    12,                      !- End Month
    31,                      !- End Day of Month
    Monday,                  !- Day of Week for Start Day
    Yes,                     !- Use Weather File Daylight Saving Period
    Yes;                     !- Use Weather File Rain and Snow Indicators

!-   ===========  ALL OBJECTS IN CLASS: RUNPERIOD ===========

  RunPeriod,
    Whole_Year,              !- Name
    1,                       !- Begin Month
    1,                       !- Begin Day of Month
    2012,                    !- Begin Year
    12,                      !- End Month
    31,                      !- End Day of Month
    2012,                    !- End Year
    Sunday,                  !- Day of Week for Start Day
    Yes,                     !- Use Weather File Holidays and Special Days
    Yes,                     !- Use Weather File Daylight Saving Period
    Yes,                     !- Apply Weekend Holiday Rule
    Yes,                     !- Use Weather File Rain Indicators
    Yes,                     !- Use Weather File Snow Indicators
    No,                      !- Treat Weather as Actual
    Hour24;                  !- First Hour Interpolation Starting Values

!-   ===========  ALL OBJECTS IN CLASS: SCHEDULETYPELIMITS ===========

  ScheduleTypeLimits,
    Temperature,             !- Name
    -60,                     !- Lower Limit Value
    200,                     !- Upper Limit Value
    Continuous,              !- Numeric Type
    Temperature;             !- Unit Type

  ScheduleTypeLimits,
    Fraction,                !- Name
    0,                       !- Lower Limit Value
    1,                       !- Upper Limit Value
    Continuous,              !- Numeric Type
    Dimensionless;           !- Unit Type

  ScheduleTypeLimits,
    Temp,                    !- Name
    -60,                     !- Lower Limit Value
    200,                     !- Upper Limit Value
    Continuous,              !- Numeric Type
    Temperature;             !- Unit Type

  ScheduleTypeLimits,
    Control Type,            !- Name
    0,                       !- Lower Limit Value
    1,                       !- Upper Limit Value
    Discrete,                !- Numeric Type
    Control;                 !- Unit Type

  ScheduleTypeLimits,
    OnOff,                   !- Name
    0,                       !- Lower Limit Value
    1,                       !- Upper Limit Value
    Discrete,                !- Numeric Type
    Dimensionless;           !- Unit Type

  ScheduleTypeLimits,
    On/Off,                  !- Name
    0,                       !- Lower Limit Value
    1,                       !- Upper Limit Value
    Discrete,                !- Numeric Type
    Dimensionless;           !- Unit Type

  ScheduleTypeLimits,
    AnyNumber,               !- Name
    0,                       !- Lower Limit Value
    1000,                    !- Upper Limit Value
    Continuous,              !- Numeric Type
    Dimensionless;           !- Unit Type

!-   ===========  ALL OBJECTS IN CLASS: SCHEDULE:DAY:INTERVAL ===========

  Schedule:Day:Interval,
    aim0121,                 !- Name
    Fraction,                !- Schedule Type Limits Name
    NO,                      !- Interpolate to Timestep
    10:00,                   !- Time 1
    0,                       !- Value Until Time 1
    16:00,                   !- Time 2
    1,                       !- Value Until Time 2
    24:00,                   !- Time 3
    0;                       !- Value Until Time 3

  Schedule:Day:Interval,
    aim0127,                 !- Name
    Fraction,                !- Schedule Type Limits Name
    NO,                      !- Interpolate to Timestep
    24:00,                   !- Time 1
    1;                       !- Value Until Time 1

  Schedule:Day:Interval,
    aim0401,                 !- Name
    Fraction,                !- Schedule Type Limits Name
    NO,                      !- Interpolate to Timestep
    6:00,                    !- Time 1
    0,                       !- Value Until Time 1
    7:00,                    !- Time 2
    0.1,                     !- Value Until Time 2
    8:00,                    !- Time 3
    0.3,                     !- Value Until Time 3
    12:00,                   !- Time 4
    0.9,                     !- Value Until Time 4
    13:00,                   !- Time 5
    0.8,                     !- Value Until Time 5
    17:00,                   !- Time 6
    0.9,                     !- Value Until Time 6
    18:00,                   !- Time 7
    0.5,                     !- Value Until Time 7
    20:00,                   !- Time 8
    0.3,                     !- Value Until Time 8
    22:00,                   !- Time 9
    0.2,                     !- Value Until Time 9
    24:00,                   !- Time 10
    0;                       !- Value Until Time 10

  Schedule:Day:Interval,
    aim0407,                 !- Name
    Fraction,                !- Schedule Type Limits Name
    NO,                      !- Interpolate to Timestep
    7:00,                    !- Time 1
    0,                       !- Value Until Time 1
    8:00,                    !- Time 2
    0.15,                    !- Value Until Time 2
    9:00,                    !- Time 3
    0.7,                     !- Value Until Time 3
    12:00,                   !- Time 4
    0.9,                     !- Value Until Time 4
    13:00,                   !- Time 5
    0.5,                     !- Value Until Time 5
    16:00,                   !- Time 6
    0.85,                    !- Value Until Time 6
    17:00,                   !- Time 7
    0.2,                     !- Value Until Time 7
    24:00,                   !- Time 8
    0;                       !- Value Until Time 8

  Schedule:Day:Interval,
    aim0517,                 !- Name
    Fraction,                !- Schedule Type Limits Name
    NO,                      !- Interpolate to Timestep
    7:00,                    !- Time 1
    0,                       !- Value Until Time 1
    8:00,                    !- Time 2
    0.1,                     !- Value Until Time 2
    9:00,                    !- Time 3
    0.2,                     !- Value Until Time 3
    11:00,                   !- Time 4
    0.95,                    !- Value Until Time 4
    13:00,                   !- Time 5
    0.45,                    !- Value Until Time 5
    18:00,                   !- Time 6
    0.95,                    !- Value Until Time 6
    19:00,                   !- Time 7
    0.3,                     !- Value Until Time 7
    22:00,                   !- Time 8
    0.1,                     !- Value Until Time 8
    24:00,                   !- Time 9
    0;                       !- Value Until Time 9

  Schedule:Day:Interval,
    ds-202-Equip,            !- Name
    Fraction,                !- Schedule Type Limits Name
    NO,                      !- Interpolate to Timestep
    7:00,                    !- Time 1
    0.210979924,             !- Value Until Time 1
    8:00,                    !- Time 2
    0.3,                     !- Value Until Time 2
    12:00,                   !- Time 3
    0.9,                     !- Value Until Time 3
    13:00,                   !- Time 4
    0.8,                     !- Value Until Time 4
    17:00,                   !- Time 5
    0.9,                     !- Value Until Time 5
    18:00,                   !- Time 6
    0.5,                     !- Value Until Time 6
    20:00,                   !- Time 7
    0.3,                     !- Value Until Time 7
    22:00,                   !- Time 8
    0.2,                     !- Value Until Time 8
    24:00,                   !- Time 9
    0.210979924;             !- Value Until Time 9

  Schedule:Day:Interval,
    ds-200-Equip,            !- Name
    Fraction,                !- Schedule Type Limits Name
    NO,                      !- Interpolate to Timestep
    8:00,                    !- Time 1
    0.210979924,             !- Value Until Time 1
    12:00,                   !- Time 2
    0.3,                     !- Value Until Time 2
    17:00,                   !- Time 3
    0.15,                    !- Value Until Time 3
    24:00,                   !- Time 4
    0.210979924;             !- Value Until Time 4

  Schedule:Day:Interval,
    ds-201-Equip,            !- Name
    Fraction,                !- Schedule Type Limits Name
    NO,                      !- Interpolate to Timestep
    24:00,                   !- Time 1
    0.210979924;             !- Value Until Time 1

  Schedule:Day:Interval,
    ds-250-Fan,              !- Name
    OnOff,                   !- Schedule Type Limits Name
    NO,                      !- Interpolate to Timestep
    7:00,                    !- Time 1
    0,                       !- Value Until Time 1
    17:00,                   !- Time 2
    0,                       !- Value Until Time 2
    24:00,                   !- Time 3
    0;                       !- Value Until Time 3

  Schedule:Day:Interval,
    ds-250-FanINF,           !- Name
    FRACTION,                !- Schedule Type Limits Name
    NO,                      !- Interpolate to Timestep
    7:00,                    !- Time 1
    0,                       !- Value Until Time 1
    17:00,                   !- Time 2
    0,                    !- Value Until Time 2
    24:00,                   !- Time 3
    0;                       !- Value Until Time 3

  Schedule:Day:Interval,
    ds-248-Fan,              !- Name
    OnOff,                   !- Schedule Type Limits Name
    NO,                      !- Interpolate to Timestep
    8:00,                    !- Time 1
    0,                       !- Value Until Time 1
    16:00,                   !- Time 2
    0,                       !- Value Until Time 2
    24:00,                   !- Time 3
    0;                       !- Value Until Time 3

  Schedule:Day:Interval,
    ds-248-FanINF,           !- Name
    FRACTION,                !- Schedule Type Limits Name
    NO,                      !- Interpolate to Timestep
    8:00,                    !- Time 1
    0,                       !- Value Until Time 1
    16:00,                   !- Time 2
    0,                    !- Value Until Time 2
    24:00,                   !- Time 3
    0;                       !- Value Until Time 3

  Schedule:Day:Interval,
    ds-249-Fan,              !- Name
    OnOff,                   !- Schedule Type Limits Name
    NO,                      !- Interpolate to Timestep
    24:00,                   !- Time 1
    0;                       !- Value Until Time 1

  Schedule:Day:Interval,
    ds-249-FanINF,           !- Name
    FRACTION,                !- Schedule Type Limits Name
    NO,                      !- Interpolate to Timestep
    24:00,                   !- Time 1
    0;                       !- Value Until Time 1

  Schedule:Day:Interval,
    ds-250-Temp-On-21.1-Off-18.3,  !- Name
    Temp,                    !- Schedule Type Limits Name
    NO,                      !- Interpolate to Timestep
    7:00,                    !- Time 1
    18.3,                    !- Value Until Time 1
    17:00,                   !- Time 2
    21.1,                    !- Value Until Time 2
    24:00,                   !- Time 3
    18.3;                    !- Value Until Time 3

  Schedule:Day:Interval,
    ds-248-Temp-On-21.1-Off-18.3,  !- Name
    Temp,                    !- Schedule Type Limits Name
    NO,                      !- Interpolate to Timestep
    8:00,                    !- Time 1
    18.3,                    !- Value Until Time 1
    16:00,                   !- Time 2
    21.1,                    !- Value Until Time 2
    24:00,                   !- Time 3
    18.3;                    !- Value Until Time 3

  Schedule:Day:Interval,
    ds-249-Temp-On-21.1-Off-18.3,  !- Name
    Temp,                    !- Schedule Type Limits Name
    NO,                      !- Interpolate to Timestep
    24:00,                   !- Time 1
    18.3;                    !- Value Until Time 1

  Schedule:Day:Interval,
    ds-250-Temp-On-23.9-Off-29.4,  !- Name
    Temp,                    !- Schedule Type Limits Name
    NO,                      !- Interpolate to Timestep
    7:00,                    !- Time 1
    29.4,                    !- Value Until Time 1
    17:00,                   !- Time 2
    23.9,                    !- Value Until Time 2
    24:00,                   !- Time 3
    29.4;                    !- Value Until Time 3

  Schedule:Day:Interval,
    ds-248-Temp-On-23.9-Off-29.4,  !- Name
    Temp,                    !- Schedule Type Limits Name
    NO,                      !- Interpolate to Timestep
    8:00,                    !- Time 1
    29.4,                    !- Value Until Time 1
    16:00,                   !- Time 2
    23.9,                    !- Value Until Time 2
    24:00,                   !- Time 3
    29.4;                    !- Value Until Time 3

  Schedule:Day:Interval,
    ds-249-Temp-On-23.9-Off-29.4,  !- Name
    Temp,                    !- Schedule Type Limits Name
    NO,                      !- Interpolate to Timestep
    24:00,                   !- Time 1
    29.4;                    !- Value Until Time 1

  Schedule:Day:Interval,
    ds-1-Equip,              !- Name
    Fraction,                !- Schedule Type Limits Name
    NO,                      !- Interpolate to Timestep
    2:00,                    !- Time 1
    0.19,                    !- Value Until Time 1
    3:00,                    !- Time 2
    0.17,                    !- Value Until Time 2
    5:00,                    !- Time 3
    0.18,                    !- Value Until Time 3
    6:00,                    !- Time 4
    0.3,                     !- Value Until Time 4
    7:00,                    !- Time 5
    0.31,                    !- Value Until Time 5
    8:00,                    !- Time 6
    0.35,                    !- Value Until Time 6
    16:00,                   !- Time 7
    0.38,                    !- Value Until Time 7
    19:00,                   !- Time 8
    0.37,                    !- Value Until Time 8
    20:00,                   !- Time 9
    0.36,                    !- Value Until Time 9
    21:00,                   !- Time 10
    0.29,                    !- Value Until Time 10
    22:00,                   !- Time 11
    0.28,                    !- Value Until Time 11
    23:00,                   !- Time 12
    0.25,                    !- Value Until Time 12
    24:00,                   !- Time 13
    0.23;                    !- Value Until Time 13

  Schedule:Day:Interval,
    ds-217-Fan,              !- Name
    OnOff,                   !- Schedule Type Limits Name
    NO,                      !- Interpolate to Timestep
    3:00,                    !- Time 1
    1,                       !- Value Until Time 1
    7:00,                    !- Time 2
    0,                       !- Value Until Time 2
    24:00,                   !- Time 3
    1;                       !- Value Until Time 3

  Schedule:Day:Interval,
    ds-217-FanINF,           !- Name
    FRACTION,                !- Schedule Type Limits Name
    NO,                      !- Interpolate to Timestep
    3:00,                    !- Time 1
    0.25,                    !- Value Until Time 1
    7:00,                    !- Time 2
    1,                       !- Value Until Time 2
    24:00,                   !- Time 3
    0.25;                    !- Value Until Time 3

  Schedule:Day:Interval,
    ds-215-Fan,              !- Name
    OnOff,                   !- Schedule Type Limits Name
    NO,                      !- Interpolate to Timestep
    3:00,                    !- Time 1
    1,                       !- Value Until Time 1
    9:00,                    !- Time 2
    0,                       !- Value Until Time 2
    24:00,                   !- Time 3
    1;                       !- Value Until Time 3

  Schedule:Day:Interval,
    ds-215-FanINF,           !- Name
    FRACTION,                !- Schedule Type Limits Name
    NO,                      !- Interpolate to Timestep
    3:00,                    !- Time 1
    0.25,                    !- Value Until Time 1
    9:00,                    !- Time 2
    1,                       !- Value Until Time 2
    24:00,                   !- Time 3
    0.25;                    !- Value Until Time 3

  Schedule:Day:Interval,
    ds-216-Fan,              !- Name
    OnOff,                   !- Schedule Type Limits Name
    NO,                      !- Interpolate to Timestep
    3:00,                    !- Time 1
    1,                       !- Value Until Time 1
    10:00,                   !- Time 2
    0,                       !- Value Until Time 2
    24:00,                   !- Time 3
    1;                       !- Value Until Time 3

  Schedule:Day:Interval,
    ds-216-FanINF,           !- Name
    FRACTION,                !- Schedule Type Limits Name
    NO,                      !- Interpolate to Timestep
    3:00,                    !- Time 1
    0.25,                    !- Value Until Time 1
    10:00,                   !- Time 2
    1,                       !- Value Until Time 2
    24:00,                   !- Time 3
    0.25;                    !- Value Until Time 3

  Schedule:Day:Interval,
    ds-205-Occ,              !- Name
    Fraction,                !- Schedule Type Limits Name
    NO,                      !- Interpolate to Timestep
    7:00,                    !- Time 1
    0,                       !- Value Until Time 1
    8:00,                    !- Time 2
    0.1,                     !- Value Until Time 2
    9:00,                    !- Time 3
    0.2,                     !- Value Until Time 3
    11:00,                   !- Time 4
    0.95,                    !- Value Until Time 4
    13:00,                   !- Time 5
    0.45,                    !- Value Until Time 5
    18:00,                   !- Time 6
    0.95,                    !- Value Until Time 6
    19:00,                   !- Time 7
    0.3,                     !- Value Until Time 7
    22:00,                   !- Time 8
    0.1,                     !- Value Until Time 8
    24:00,                   !- Time 9
    0;                       !- Value Until Time 9

  Schedule:Day:Interval,
    ds-203-Occ,              !- Name
    Fraction,                !- Schedule Type Limits Name
    NO,                      !- Interpolate to Timestep
    7:00,                    !- Time 1
    0,                       !- Value Until Time 1
    9:00,                    !- Time 2
    0.1,                     !- Value Until Time 2
    13:00,                   !- Time 3
    0.3,                     !- Value Until Time 3
    18:00,                   !- Time 4
    0.1,                     !- Value Until Time 4
    24:00,                   !- Time 5
    0;                       !- Value Until Time 5

  Schedule:Day:Interval,
    ds-204-Occ,              !- Name
    Fraction,                !- Schedule Type Limits Name
    NO,                      !- Interpolate to Timestep
    24:00,                   !- Time 1
    0;                       !- Value Until Time 1



Schedule:Day:Interval,
    day1,                   !- Name
    Fraction,                !- Schedule Type Limits Name
    No,                      !- Interpolate to Timestep
    01:00,                   !- Time 1 {hh:mm}
    0.00000,                 !- Value Until Time 1
    02:00,                   !- Time 2 {hh:mm}
    0.00000,                 !- Value Until Time 2
    03:00,                   !- Time 3 {hh:mm}
    0.00000,                 !- Value Until Time 3
    04:00,                   !- Time 4 {hh:mm}
    0.00000,                 !- Value Until Time 4
    05:00,                   !- Time 5 {hh:mm}
    0.00000,                 !- Value Until Time 5
    06:00,                   !- Time 6 {hh:mm}
    0.00000,                 !- Value Until Time 6
    07:00,                   !- Time 7 {hh:mm}
    0.00000,                 !- Value Until Time 7
    08:00,                   !- Time 8 {hh:mm}
    0.17365,                 !- Value Until Time 8
    09:00,                   !- Time 9 {hh:mm}
    0.51798,                 !- Value Until Time 9
    10:00,                   !- Time 10 {hh:mm}
    0.69024,                 !- Value Until Time 10
    11:00,                   !- Time 11 {hh:mm}
    0.77060,                 !- Value Until Time 11
    12:00,                   !- Time 12 {hh:mm}
    0.79596,                 !- Value Until Time 12
    13:00,                   !- Time 13 {hh:mm}
    0.77623,                 !- Value Until Time 13
    14:00,                   !- Time 14 {hh:mm}
    0.70373,                 !- Value Until Time 14
    15:00,                   !- Time 15 {hh:mm}
    0.54604,                 !- Value Until Time 15
    16:00,                   !- Time 16 {hh:mm}
    0.22524,                 !- Value Until Time 16
    17:00,                   !- Time 17 {hh:mm}
    0.00000,                 !- Value Until Time 17
    18:00,                   !- Time 18 {hh:mm}
    0.00000,                 !- Value Until Time 18
    19:00,                   !- Time 19 {hh:mm}
    0.00000,                 !- Value Until Time 19
    20:00,                   !- Time 20 {hh:mm}
    0.00000,                 !- Value Until Time 20
    21:00,                   !- Time 21 {hh:mm}
    0.00000,                 !- Value Until Time 21
    22:00,                   !- Time 22 {hh:mm}
    0.00000,                 !- Value Until Time 22
    23:00,                   !- Time 23 {hh:mm}
    0.00000,                 !- Value Until Time 23
    24:00,                   !- Time 24 {hh:mm}
    0.00000;                 !- Value Until Time 24


Schedule:Day:Interval,
    day2,                   !- Name
    Fraction,                !- Schedule Type Limits Name
    No,                      !- Interpolate to Timestep
    01:00,                   !- Time 1 {hh:mm}
    0.00000,                 !- Value Until Time 1
    02:00,                   !- Time 2 {hh:mm}
    0.00000,                 !- Value Until Time 2
    03:00,                   !- Time 3 {hh:mm}
    0.00000,                 !- Value Until Time 3
    04:00,                   !- Time 4 {hh:mm}
    0.00000,                 !- Value Until Time 4
    05:00,                   !- Time 5 {hh:mm}
    0.00000,                 !- Value Until Time 5
    06:00,                   !- Time 6 {hh:mm}
    0.00000,                 !- Value Until Time 6
    07:00,                   !- Time 7 {hh:mm}
    0.00000,                 !- Value Until Time 7
    08:00,                   !- Time 8 {hh:mm}
    0.17336,                 !- Value Until Time 8
    09:00,                   !- Time 9 {hh:mm}
    0.51838,                 !- Value Until Time 9
    10:00,                   !- Time 10 {hh:mm}
    0.69097,                 !- Value Until Time 10
    11:00,                   !- Time 11 {hh:mm}
    0.77158,                 !- Value Until Time 11
    12:00,                   !- Time 12 {hh:mm}
    0.79724,                 !- Value Until Time 12
    13:00,                   !- Time 13 {hh:mm}
    0.77790,                 !- Value Until Time 13
    14:00,                   !- Time 14 {hh:mm}
    0.70617,                 !- Value Until Time 14
    15:00,                   !- Time 15 {hh:mm}
    0.55000,                 !- Value Until Time 15
    16:00,                   !- Time 16 {hh:mm}
    0.23171,                 !- Value Until Time 16
    17:00,                   !- Time 17 {hh:mm}
    0.00000,                 !- Value Until Time 17
    18:00,                   !- Time 18 {hh:mm}
    0.00000,                 !- Value Until Time 18
    19:00,                   !- Time 19 {hh:mm}
    0.00000,                 !- Value Until Time 19
    20:00,                   !- Time 20 {hh:mm}
    0.00000,                 !- Value Until Time 20
    21:00,                   !- Time 21 {hh:mm}
    0.00000,                 !- Value Until Time 21
    22:00,                   !- Time 22 {hh:mm}
    0.00000,                 !- Value Until Time 22
    23:00,                   !- Time 23 {hh:mm}
    0.00000,                 !- Value Until Time 23
    24:00,                   !- Time 24 {hh:mm}
    0.00000;                 !- Value Until Time 24


Schedule:Day:Interval,
    day3,                   !- Name
    Fraction,                !- Schedule Type Limits Name
    No,                      !- Interpolate to Timestep
    01:00,                   !- Time 1 {hh:mm}
    0.00000,                 !- Value Until Time 1
    02:00,                   !- Time 2 {hh:mm}
    0.00000,                 !- Value Until Time 2
    03:00,                   !- Time 3 {hh:mm}
    0.00000,                 !- Value Until Time 3
    04:00,                   !- Time 4 {hh:mm}
    0.00000,                 !- Value Until Time 4
    05:00,                   !- Time 5 {hh:mm}
    0.00000,                 !- Value Until Time 5
    06:00,                   !- Time 6 {hh:mm}
    0.00000,                 !- Value Until Time 6
    07:00,                   !- Time 7 {hh:mm}
    0.00000,                 !- Value Until Time 7
    08:00,                   !- Time 8 {hh:mm}
    0.17337,                 !- Value Until Time 8
    09:00,                   !- Time 9 {hh:mm}
    0.51899,                 !- Value Until Time 9
    10:00,                   !- Time 10 {hh:mm}
    0.69185,                 !- Value Until Time 10
    11:00,                   !- Time 11 {hh:mm}
    0.77268,                 !- Value Until Time 11
    12:00,                   !- Time 12 {hh:mm}
    0.79859,                 !- Value Until Time 12
    13:00,                   !- Time 13 {hh:mm}
    0.77969,                 !- Value Until Time 13
    14:00,                   !- Time 14 {hh:mm}
    0.70873,                 !- Value Until Time 14
    15:00,                   !- Time 15 {hh:mm}
    0.55407,                 !- Value Until Time 15
    16:00,                   !- Time 16 {hh:mm}
    0.23839,                 !- Value Until Time 16
    17:00,                   !- Time 17 {hh:mm}
    0.00000,                 !- Value Until Time 17
    18:00,                   !- Time 18 {hh:mm}
    0.00000,                 !- Value Until Time 18
    19:00,                   !- Time 19 {hh:mm}
    0.00000,                 !- Value Until Time 19
    20:00,                   !- Time 20 {hh:mm}
    0.00000,                 !- Value Until Time 20
    21:00,                   !- Time 21 {hh:mm}
    0.00000,                 !- Value Until Time 21
    22:00,                   !- Time 22 {hh:mm}
    0.00000,                 !- Value Until Time 22
    23:00,                   !- Time 23 {hh:mm}
    0.00000,                 !- Value Until Time 23
    24:00,                   !- Time 24 {hh:mm}
    0.00000;                 !- Value Until Time 24


Schedule:Day:Interval,
    day4,                   !- Name
    Fraction,                !- Schedule Type Limits Name
    No,                      !- Interpolate to Timestep
    01:00,                   !- Time 1 {hh:mm}
    0.00000,                 !- Value Until Time 1
    02:00,                   !- Time 2 {hh:mm}
    0.00000,                 !- Value Until Time 2
    03:00,                   !- Time 3 {hh:mm}
    0.00000,                 !- Value Until Time 3
    04:00,                   !- Time 4 {hh:mm}